Version 4
SHEET 1 880 680
WIRE 160 48 48 48
WIRE 304 48 240 48
WIRE 464 48 368 48
WIRE 464 96 464 48
WIRE 48 128 48 48
WIRE 48 256 48 208
WIRE 464 256 464 176
WIRE 464 256 48 256
WIRE 48 320 48 256
FLAG 48 320 0
SYMBOL voltage 48 112 R0
WINDOW 123 24 124 Left 2
WINDOW 39 0 0 Left 0
SYMATTR InstName V1
SYMATTR Value ""
SYMATTR Value2 AC 1
SYMBOL cap 368 32 R90
WINDOW 0 0 32 VBottom 2
WINDOW 3 32 32 VTop 2
SYMATTR InstName C1
SYMATTR Value 3
SYMBOL res 448 80 R0
SYMATTR InstName R1
SYMATTR Value 1
SYMBOL ind 144 64 R270
WINDOW 0 32 56 VTop 2
WINDOW 3 5 56 VBottom 2
SYMATTR InstName L1
SYMATTR Value 0.166666
TEXT 14 344 Left 2 !.ac dec 100 0.01 20
