Version 4
SHEET 1 880 680
WIRE 144 80 16 80
WIRE 288 80 144 80
WIRE 144 96 144 80
WIRE 288 96 288 80
WIRE 16 160 16 80
WIRE 144 192 144 160
WIRE 192 192 144 192
WIRE 288 192 288 176
WIRE 288 192 240 192
WIRE 144 208 144 192
WIRE 288 224 288 192
WIRE 16 320 16 240
WIRE 144 320 144 288
WIRE 144 320 16 320
WIRE 288 320 288 288
WIRE 288 320 144 320
WIRE 16 352 16 320
FLAG 16 352 0
SYMBOL cap 128 96 R0
SYMATTR InstName C1
SYMATTR Value 0.1317
SYMBOL cap 272 224 R0
SYMATTR InstName C2
SYMATTR Value 0.1317
SYMBOL res 272 80 R0
SYMATTR InstName R1
SYMATTR Value 1
SYMBOL res 128 192 R0
SYMATTR InstName R2
SYMATTR Value 1
SYMBOL voltage 16 144 R0
WINDOW 123 24 124 Left 2
WINDOW 39 0 0 Left 0
SYMATTR InstName V1
SYMATTR Value ""
SYMATTR Value2 AC 1
TEXT -18 376 Left 2 !.ac dec 100 0.1 20
