Version 4
SHEET 1 880 680
WIRE 608 16 560 16
WIRE 720 16 688 16
WIRE 432 32 368 32
WIRE 560 32 560 16
WIRE 560 32 512 32
WIRE 560 96 560 32
WIRE 592 96 560 96
WIRE 720 112 720 16
WIRE 720 112 656 112
WIRE 752 112 720 112
WIRE 368 128 368 32
WIRE 368 128 304 128
WIRE 448 128 368 128
WIRE 560 128 512 128
WIRE 592 128 560 128
WIRE 304 160 304 128
WIRE 560 192 560 128
WIRE 304 320 304 240
WIRE 560 320 560 272
WIRE 560 320 304 320
WIRE 304 336 304 320
FLAG 304 336 0
SYMBOL OpAmps\\opamp 624 48 R0
SYMATTR InstName U1
SYMBOL voltage 304 144 R0
WINDOW 123 24 124 Left 2
WINDOW 39 0 0 Left 0
SYMATTR Value2 AC 1
SYMATTR InstName V1
SYMATTR Value ""
SYMBOL cap 512 112 R90
WINDOW 0 0 32 VBottom 2
WINDOW 3 32 32 VTop 2
SYMATTR InstName C1
SYMATTR Value 1
SYMBOL res 528 16 R90
WINDOW 0 0 56 VBottom 2
WINDOW 3 32 56 VTop 2
SYMATTR InstName R1
SYMATTR Value 1
SYMBOL res 704 0 R90
WINDOW 0 0 56 VBottom 2
WINDOW 3 32 56 VTop 2
SYMATTR InstName R2
SYMATTR Value 1
SYMBOL res 544 176 R0
SYMATTR InstName R3
SYMATTR Value 1
TEXT 304 400 Left 2 !.inc opamp.sub
TEXT 272 424 Left 2 !.ac dec 100 0.01 20
