Version 4
SHEET 1 1932 680
WIRE -224 96 -336 96
WIRE -80 96 -144 96
WIRE 48 96 -16 96
WIRE 80 96 48 96
WIRE 272 112 160 112
WIRE 528 112 512 112
WIRE 672 112 608 112
WIRE 800 112 736 112
WIRE 832 112 800 112
WIRE 1296 112 1280 112
WIRE 1440 112 1376 112
WIRE 1472 112 1440 112
WIRE -336 128 -336 96
WIRE 1024 128 912 128
WIRE 1664 128 1552 128
WIRE 272 176 272 112
WIRE 320 176 272 176
WIRE 320 192 320 176
WIRE 1024 192 1024 128
WIRE 1072 192 1024 192
WIRE 1664 192 1664 128
WIRE 1712 192 1664 192
WIRE 1072 208 1072 192
WIRE 1712 208 1712 192
WIRE 272 240 272 176
WIRE 272 240 256 240
WIRE 48 256 48 96
WIRE 176 256 48 256
WIRE 1024 256 1024 192
WIRE 1024 256 1008 256
WIRE 1664 256 1664 192
WIRE 1664 256 1648 256
WIRE -336 272 -336 208
WIRE 320 272 320 256
WIRE 800 272 800 112
WIRE 928 272 800 272
WIRE 1440 272 1440 112
WIRE 1568 272 1440 272
WIRE 1072 288 1072 272
WIRE 1712 288 1712 272
WIRE 512 304 512 112
WIRE 512 304 368 304
WIRE 1280 304 1280 112
WIRE 1280 304 1136 304
WIRE 368 352 368 304
WIRE 400 352 368 352
WIRE 1136 352 1136 304
WIRE 1168 352 1136 352
WIRE 512 368 512 304
WIRE 512 368 464 368
WIRE 1280 368 1280 304
WIRE 1280 368 1232 368
WIRE 48 384 48 256
WIRE 400 384 48 384
WIRE 800 384 800 272
WIRE 1168 384 800 384
FLAG 80 128 0
FLAG -336 272 0
FLAG 256 272 0
FLAG 320 272 0
FLAG 832 144 0
FLAG 1008 288 0
FLAG 1072 288 0
FLAG 1472 144 0
FLAG 1648 288 0
FLAG 1712 288 0
SYMBOL SpecialFunctions\\ota2 112 48 R0
WINDOW 3 0 104 Invisible 2
SYMATTR Value G=1 Vlow=-1
SYMATTR InstName A1
SYMBOL SpecialFunctions\\ota 224 192 M0
WINDOW 3 0 60 Invisible 2
SYMATTR Value G=1 Vlow=-1
SYMATTR InstName A2
SYMBOL voltage -336 112 R0
WINDOW 123 24 124 Left 2
WINDOW 39 0 0 Left 0
SYMATTR Value2 AC 1
SYMATTR InstName V1
SYMATTR Value ""
SYMBOL res -128 80 R90
WINDOW 0 0 56 VBottom 2
WINDOW 3 32 56 VTop 2
SYMATTR InstName R1
SYMATTR Value 4.545
SYMBOL cap -16 80 R90
WINDOW 0 0 32 VBottom 2
WINDOW 3 32 32 VTop 2
SYMATTR InstName C1
SYMATTR Value 2.258µ
SYMBOL cap 304 192 R0
SYMATTR InstName C2
SYMATTR Value 60µ
SYMBOL SpecialFunctions\\ota2 864 64 R0
WINDOW 3 0 104 Invisible 2
SYMATTR Value G=1 Vlow=-1
SYMATTR InstName A3
SYMBOL SpecialFunctions\\ota 976 208 M0
WINDOW 3 0 60 Invisible 2
SYMATTR Value G=1 Vlow=-1
SYMATTR InstName A4
SYMBOL res 624 96 R90
WINDOW 0 0 56 VBottom 2
WINDOW 3 32 56 VTop 2
SYMATTR InstName R2
SYMATTR Value 4.545
SYMBOL cap 736 96 R90
WINDOW 0 0 32 VBottom 2
WINDOW 3 32 32 VTop 2
SYMATTR InstName C3
SYMATTR Value 0.875µ
SYMBOL cap 1056 208 R0
SYMATTR InstName C4
SYMATTR Value 331.2µ
SYMBOL OpAmps\\opamp 432 304 R0
SYMATTR InstName U1
SYMBOL SpecialFunctions\\ota2 1504 64 R0
WINDOW 3 0 104 Invisible 2
SYMATTR Value G=1 Vlow=-1
SYMATTR InstName A5
SYMBOL SpecialFunctions\\ota 1616 208 M0
WINDOW 3 0 60 Invisible 2
SYMATTR Value G=1 Vlow=-1
SYMATTR InstName A6
SYMBOL res 1392 96 R90
WINDOW 0 0 56 VBottom 2
WINDOW 3 32 56 VTop 2
SYMATTR InstName R3
SYMATTR Value 7.03
SYMBOL cap 1696 208 R0
SYMATTR InstName C6
SYMATTR Value 45.45µ
SYMBOL OpAmps\\opamp 1200 304 R0
SYMATTR InstName U2
TEXT -392 344 Left 2 !.ac dec 1000 1k 500k
TEXT -384 384 Left 2 !.inc opamp.sub
