Version 4
SHEET 1 880 680
WIRE -224 96 -336 96
WIRE -80 96 -144 96
WIRE 48 96 -16 96
WIRE 80 96 48 96
WIRE 272 112 160 112
WIRE -336 128 -336 96
WIRE 272 176 272 112
WIRE 320 176 272 176
WIRE 320 192 320 176
WIRE 272 240 272 176
WIRE 272 240 256 240
WIRE 48 256 48 96
WIRE 176 256 48 256
WIRE -336 272 -336 208
WIRE 320 272 320 256
FLAG 80 128 0
FLAG -336 272 0
FLAG 256 272 0
FLAG 320 272 0
SYMBOL SpecialFunctions\\ota2 112 48 R0
WINDOW 3 0 104 Invisible 2
SYMATTR InstName A1
SYMATTR Value G=1 Vlow=-1
SYMBOL SpecialFunctions\\ota 224 192 M0
WINDOW 3 0 60 Invisible 2
SYMATTR InstName A2
SYMATTR Value G=1 Vlow=-1
SYMBOL voltage -336 112 R0
WINDOW 123 24 124 Left 2
WINDOW 39 0 0 Left 0
SYMATTR InstName V1
SYMATTR Value ""
SYMATTR Value2 AC 1
SYMBOL res -128 80 R90
WINDOW 0 0 56 VBottom 2
WINDOW 3 32 56 VTop 2
SYMATTR InstName R1
SYMATTR Value 4.545
SYMBOL cap -16 80 R90
WINDOW 0 0 32 VBottom 2
WINDOW 3 32 32 VTop 2
SYMATTR InstName C1
SYMATTR Value 2.258µ
SYMBOL cap 304 192 R0
SYMATTR InstName C2
SYMATTR Value 60µ
TEXT 334 296 Left 2 !.ac dec 1000 1k 500k
