Version 4
SHEET 1 1512 680
WIRE 64 -368 -464 -368
WIRE 912 -368 384 -368
WIRE -464 -256 -464 -368
WIRE -400 -256 -464 -256
WIRE 384 -256 384 -368
WIRE 448 -256 384 -256
WIRE -272 -240 -320 -240
WIRE -64 -240 -272 -240
WIRE 592 -240 528 -240
WIRE 784 -240 592 -240
WIRE 64 -224 64 -368
WIRE 64 -224 16 -224
WIRE 208 -224 64 -224
WIRE 912 -224 912 -368
WIRE 912 -224 864 -224
WIRE -64 -208 -128 -208
WIRE 784 -208 720 -208
WIRE 592 -160 592 -240
WIRE -128 -128 -128 -208
WIRE 64 -128 64 -224
WIRE 64 -128 -128 -128
WIRE 720 -128 720 -208
WIRE 912 -128 912 -224
WIRE 912 -128 720 -128
WIRE -128 -112 -128 -128
WIRE 720 -112 720 -128
WIRE -272 -96 -272 -240
WIRE 592 -64 592 -96
WIRE 208 -32 208 -224
WIRE 720 -32 720 -48
WIRE 720 -32 208 -32
WIRE -272 0 -272 -32
WIRE -128 0 -128 -48
WIRE -128 96 -128 80
FLAG -272 0 0
FLAG 592 -64 0
FLAG -400 -224 0
FLAG -128 96 0
FLAG 448 -224 0
SYMBOL cap -288 -96 R0
SYMATTR InstName C1
SYMATTR Value 1
SYMBOL cap -144 -112 R0
SYMATTR InstName C2
SYMATTR Value 1
SYMBOL voltage -128 -16 R0
WINDOW 3 24 44 Left 2
WINDOW 123 24 124 Left 2
WINDOW 39 0 0 Left 0
SYMATTR Value ""
SYMATTR Value2 AC 1
SYMATTR InstName V1
SYMBOL cap 576 -160 R0
SYMATTR InstName C3
SYMATTR Value 1
SYMBOL cap 704 -112 R0
SYMATTR InstName C4
SYMATTR Value 1
SYMBOL SpecialFunctions\\ota -368 -304 R0
WINDOW 3 -167 135 Invisible 2
SYMATTR Value G = 5.2u Vlow=-1
SYMATTR InstName A1
SYMBOL SpecialFunctions\\ota2 -32 -288 R0
WINDOW 3 0 0 Invisible 0
SYMATTR Value G = 8.476u Vlow=-1
SYMATTR InstName A2
SYMBOL SpecialFunctions\\ota 480 -304 R0
WINDOW 3 -167 135 Invisible 2
SYMATTR Value G = 5.2u Vlow=-1
SYMATTR InstName A3
SYMBOL SpecialFunctions\\ota2 816 -288 R0
WINDOW 3 0 0 Invisible 0
SYMATTR Value G = 8.476u Vlow=-1
SYMATTR InstName A4
TEXT -464 176 Left 2 !.ac dec 100 1k 100k
TEXT 56 168 Left 2 !.inc opamp.sub
