Version 4
SHEET 1 1448 680
WIRE 288 16 -240 16
WIRE 1136 16 608 16
WIRE -32 80 -80 80
WIRE 816 80 768 80
WIRE -32 112 -32 80
WIRE 160 112 -32 112
WIRE 816 112 816 80
WIRE 1008 112 816 112
WIRE -240 128 -240 16
WIRE -176 128 -240 128
WIRE 608 128 608 16
WIRE 672 128 608 128
WIRE 288 160 288 16
WIRE 288 160 256 160
WIRE 432 160 288 160
WIRE 1136 160 1136 16
WIRE 1136 160 1104 160
WIRE 160 176 96 176
WIRE 1008 176 944 176
WIRE -32 224 -32 112
WIRE 816 224 816 112
WIRE 96 256 96 176
WIRE 288 256 288 160
WIRE 288 256 96 256
WIRE 944 256 944 176
WIRE 1136 256 1136 160
WIRE 1136 256 944 256
WIRE 944 272 944 256
WIRE -32 320 -32 288
WIRE 96 320 96 256
WIRE 816 320 816 288
WIRE 432 352 432 160
WIRE 944 352 944 336
WIRE 944 352 432 352
WIRE 96 432 96 384
WIRE 96 528 96 512
FLAG -176 64 0
FLAG -32 320 0
FLAG 256 128 0
FLAG -80 112 0
FLAG 96 528 0
FLAG 672 64 0
FLAG 816 320 0
FLAG 1104 128 0
FLAG 768 112 0
SYMBOL OTAdif -96 96 R0
SYMATTR InstName X1
SYMATTR SpiceLine gm = 1.47
SYMBOL OTAdif 240 144 R0
SYMATTR InstName X2
SYMATTR SpiceLine gm=0.68
SYMBOL cap -48 224 R0
SYMATTR InstName C1
SYMATTR Value 1
SYMBOL cap 80 320 R0
SYMATTR InstName C2
SYMATTR Value 0.2837
SYMBOL voltage 96 416 R0
WINDOW 123 24 124 Left 2
WINDOW 39 0 0 Left 0
SYMATTR Value2 AC 1
SYMATTR InstName V1
SYMATTR Value ""
SYMBOL OTAdif 752 96 R0
SYMATTR InstName X3
SYMATTR SpiceLine gm = 3.57
SYMBOL OTAdif 1088 144 R0
SYMATTR InstName X4
SYMATTR SpiceLine gm=0.28
SYMBOL cap 800 224 R0
SYMATTR InstName C3
SYMATTR Value 1
SYMBOL cap 928 272 R0
SYMATTR InstName C4
SYMATTR Value 0.98
TEXT -240 560 Left 2 !.ac dec 10000 0.01 1k
