Version 4
SHEET 1 4324 680
WIRE 2432 -16 2224 -16
WIRE 1696 0 1488 0
WIRE 3280 0 3216 0
WIRE 3424 0 3360 0
WIRE 2224 112 2224 -16
WIRE 2272 112 2224 112
WIRE 1488 128 1488 0
WIRE 1536 128 1488 128
WIRE 2432 128 2432 -16
WIRE 2432 128 2336 128
WIRE 2496 128 2432 128
WIRE 2656 128 2576 128
WIRE 2864 128 2720 128
WIRE 3088 128 2864 128
WIRE 3216 128 3216 0
WIRE 3216 128 3168 128
WIRE 3264 128 3216 128
WIRE 1696 144 1696 0
WIRE 1696 144 1600 144
WIRE 1792 144 1696 144
WIRE 1952 144 1872 144
WIRE 2160 144 2016 144
WIRE 2272 144 2160 144
WIRE 3424 144 3424 0
WIRE 3424 144 3328 144
WIRE 3520 144 3424 144
WIRE 944 160 800 160
WIRE 1104 160 1024 160
WIRE 1312 160 1168 160
WIRE 1536 160 1312 160
WIRE 3264 160 3232 160
WIRE 2864 192 2864 128
WIRE 2160 208 2160 144
WIRE 800 224 800 160
WIRE 1312 224 1312 160
WIRE 3232 224 3232 160
WIRE 2864 352 2864 272
WIRE 2160 368 2160 288
WIRE 1312 384 1312 304
WIRE 800 400 800 304
FLAG 800 400 0
FLAG 3232 224 0
FLAG 1312 384 0
FLAG 2160 368 0
FLAG 2864 352 0
SYMBOL voltage 800 208 R0
WINDOW 123 24 124 Left 2
WINDOW 39 0 0 Left 0
SYMATTR InstName V1
SYMATTR Value ""
SYMATTR Value2 AC 1
SYMBOL ind 928 176 R270
WINDOW 0 32 56 VTop 2
WINDOW 3 5 56 VBottom 2
SYMATTR InstName L2
SYMATTR Value 17.77
SYMBOL cap 1168 144 R90
WINDOW 0 0 32 VBottom 2
WINDOW 3 32 32 VTop 2
SYMATTR InstName C2
SYMATTR Value 0.069
SYMBOL res 1296 208 R0
SYMATTR InstName R2
SYMATTR Value 1
SYMBOL OpAmps\\opamp 1568 80 R0
SYMATTR InstName U2
SYMBOL ind 1776 160 R270
WINDOW 0 32 56 VTop 2
WINDOW 3 5 56 VBottom 2
SYMATTR InstName L3
SYMATTR Value 14.5
SYMBOL cap 2016 128 R90
WINDOW 0 0 32 VBottom 2
WINDOW 3 32 32 VTop 2
SYMATTR InstName C3
SYMATTR Value 0.0562
SYMBOL res 2144 192 R0
SYMATTR InstName R3
SYMATTR Value 1
SYMBOL OpAmps\\opamp 3296 80 R0
SYMATTR InstName U3
SYMBOL res 3184 112 R90
WINDOW 0 0 56 VBottom 2
WINDOW 3 32 56 VTop 2
SYMATTR InstName R4
SYMATTR Value 1
SYMBOL res 3376 -16 R90
WINDOW 0 0 56 VBottom 2
WINDOW 3 32 56 VTop 2
SYMATTR InstName R5
SYMATTR Value 11.77
SYMBOL ind 2480 144 R270
WINDOW 0 32 56 VTop 2
WINDOW 3 5 56 VBottom 2
SYMATTR InstName L4
SYMATTR Value 7.981
SYMBOL cap 2720 112 R90
WINDOW 0 0 32 VBottom 2
WINDOW 3 32 32 VTop 2
SYMATTR InstName C4
SYMATTR Value 0.1253
SYMBOL res 2848 176 R0
SYMATTR InstName R6
SYMATTR Value 1
SYMBOL OpAmps\\opamp 2304 64 R0
SYMATTR InstName U1
TEXT 808 592 Left 2 !.lib opamp.sub
TEXT 814 544 Left 2 !.ac dec 100000 0.01 2
